Circuit: * Z:\home\winson\CanSat\UCSD-Cansat-2016-17\hardware\sim\Draft1.asc

Direct Newton iteration for .op point succeeded.

Date: Sat Nov 12 13:19:51 2016
Total elapsed time: 0.067 seconds.

tnom = 27
temp = 27
method = modified trap
totiter = 2100
traniter = 2088
tranpoints = 1045
accept = 1045
rejected = 0
matrix size = 20
fillins = 4
solver = Normal
Matrix Compiler1: 882 bytes object code size  0.9/0.5/[0.4]
Matrix Compiler2: off  [0.5]/0.6/0.6


